opendss/LVTestCase/data/PV/PV_329.txt
New generator.m_gen22 Phases=1 Bus1=388.1 kV=0.23 kW=1 PF=0.95 Yearly=PV_Shape_72
New generator.m_gen17 Phases=1 Bus1=327.3 kV=0.23 kW=1 PF=0.95 Yearly=PV_Shape_132
New generator.m_gen29 Phases=1 Bus1=562.1 kV=0.23 kW=1 PF=0.95 Yearly=PV_Shape_14
New generator.m_gen7 Phases=1 Bus1=178.2 kV=0.23 kW=1 PF=0.95 Yearly=PV_Shape_119
New generator.m_gen12 Phases=1 Bus1=264.3 kV=0.23 kW=1 PF=0.95 Yearly=PV_Shape_60
New generator.m_gen4 Phases=1 Bus1=73.1 kV=0.23 kW=1 PF=0.95 Yearly=PV_Shape_64
New generator.m_gen23 Phases=1 Bus1=406.2 kV=0.23 kW=1 PF=0.95 Yearly=PV_Shape_11
New generator.m_gen18 Phases=1 Bus1=337.3 kV=0.23 kW=1 PF=0.95 Yearly=PV_Shape_3
New generator.m_gen21 Phases=1 Bus1=387.1 kV=0.23 kW=1 PF=0.95 Yearly=PV_Shape_24
New generator.m_gen26 Phases=1 Bus1=522.2 kV=0.23 kW=1 PF=0.95 Yearly=PV_Shape_81
New generator.m_gen20 Phases=1 Bus1=349.1 kV=0.23 kW=1 PF=0.95 Yearly=PV_Shape_156
New generator.m_gen44 Phases=1 Bus1=785.2 kV=0.23 kW=1 PF=0.95 Yearly=PV_Shape_88
New generator.m_gen53 Phases=1 Bus1=899.2 kV=0.23 kW=1 PF=0.95 Yearly=PV_Shape_57
New generator.m_gen14 Phases=1 Bus1=289.1 kV=0.23 kW=1 PF=0.95 Yearly=PV_Shape_63
New generator.m_gen9 Phases=1 Bus1=225.1 kV=0.23 kW=1 PF=0.95 Yearly=PV_Shape_152
New generator.m_gen3 Phases=1 Bus1=70.1 kV=0.23 kW=1 PF=0.95 Yearly=PV_Shape_92
New generator.m_gen33 Phases=1 Bus1=619.3 kV=0.23 kW=1 PF=0.95 Yearly=PV_Shape_61
New generator.m_gen37 Phases=1 Bus1=682.2 kV=0.23 kW=1 PF=0.95 Yearly=PV_Shape_30
New generator.m_gen28 Phases=1 Bus1=556.3 kV=0.23 kW=1 PF=0.95 Yearly=PV_Shape_148
New generator.m_gen45 Phases=1 Bus1=813.2 kV=0.23 kW=1 PF=0.95 Yearly=PV_Shape_108
New generator.m_gen39 Phases=1 Bus1=701.3 kV=0.23 kW=1 PF=0.95 Yearly=PV_Shape_138
New generator.m_gen1 Phases=1 Bus1=34.1 kV=0.23 kW=1 PF=0.95 Yearly=PV_Shape_79
New generator.m_gen43 Phases=1 Bus1=780.3 kV=0.23 kW=1 PF=0.95 Yearly=PV_Shape_45
New generator.m_gen42 Phases=1 Bus1=778.3 kV=0.23 kW=1 PF=0.95 Yearly=PV_Shape_145
New generator.m_gen31 Phases=1 Bus1=611.1 kV=0.23 kW=1 PF=0.95 Yearly=PV_Shape_18
New generator.m_gen46 Phases=1 Bus1=817.1 kV=0.23 kW=1 PF=0.95 Yearly=PV_Shape_52
New generator.m_gen38 Phases=1 Bus1=688.2 kV=0.23 kW=1 PF=0.95 Yearly=PV_Shape_142
New generator.m_gen27 Phases=1 Bus1=539.3 kV=0.23 kW=1 PF=0.95 Yearly=PV_Shape_6
New generator.m_gen8 Phases=1 Bus1=208.3 kV=0.23 kW=1 PF=0.95 Yearly=PV_Shape_124
New generator.m_gen36 Phases=1 Bus1=676.2 kV=0.23 kW=1 PF=0.95 Yearly=PV_Shape_19
New generator.m_gen32 Phases=1 Bus1=614.3 kV=0.23 kW=1 PF=0.95 Yearly=PV_Shape_143
New generator.m_gen19 Phases=1 Bus1=342.3 kV=0.23 kW=1 PF=0.95 Yearly=PV_Shape_125
New generator.m_gen49 Phases=1 Bus1=861.1 kV=0.23 kW=1 PF=0.95 Yearly=PV_Shape_74
New generator.m_gen11 Phases=1 Bus1=249.2 kV=0.23 kW=1 PF=0.95 Yearly=PV_Shape_153
New generator.m_gen10 Phases=1 Bus1=248.2 kV=0.23 kW=1 PF=0.95 Yearly=PV_Shape_84
New generator.m_gen2 Phases=1 Bus1=47.2 kV=0.23 kW=1 PF=0.95 Yearly=PV_Shape_151
New generator.m_gen35 Phases=1 Bus1=639.2 kV=0.23 kW=1 PF=0.95 Yearly=PV_Shape_12
New generator.m_gen48 Phases=1 Bus1=860.1 kV=0.23 kW=1 PF=0.95 Yearly=PV_Shape_65
